/*--------------------------------*- C++ -*----------------------------------*\
| =========                 |                                                 |
| \\      /  F ield         | foam-extend: Open Source CFD                    |
|  \\    /   O peration     | Version:     3.1                                |
|   \\  /    A nd           | Web:         http://www.extend-project.de       |
|    \\/     M anipulation  |                                                 |
\*---------------------------------------------------------------------------*/
FoamFile
{
    version     2.0;
    format      ascii;
    class       dictionary;
    location    "system";
    object      controlDict;
}
// * * * * * * * * * * * * * * * * * * * * * * * * * * * * * * * * * * * * * //

application     elasticNonLinULSolidFoam;

startFrom       startTime;

startTime       0.0;

stopAt          endTime;

endTime         11;

deltaT          0.1;

writeControl    timeStep;

writeInterval   1;

cycleWrite      0;

writeFormat     ascii;

writePrecision  6;

writeCompression compressed;

timeFormat      general;

timePrecision   6;

runTimeModifiable yes;

functions 
(
   force
   {
       type patchIntegrate;
       functionObjectLibs
         (
           "libsimpleFunctionObjects.so"
         );
       verbose true;
       patches
         (
           left
           blockLeft
	   blockRight
         );
       factor 10.0;
       fields
         (
           sigma
         );
       outputControl timeStep;
       outputInterval 1;
   }
);

// ************************************************************************* //
